NOVO24/1726540/Trafos.dss
! ==========================================================
! TRANSFORMADORES DE DISTRIBUICAO — gerados de UNTRMT/EQTRMT
! Secundario 1F/2F: 3 enrolamentos com derivacao central
! Neutro no no 4, aterrado em _ATERRAMENTO.dss
! Kv de BT conforme TEN_LIN_SE da BDGD
! ==========================================================
New Transformer.325048875_325841269 phases=3 windings=2 Xhl=4.900
~ wdg=1 bus=node_444147738.1.2.3 conn=delta Kv=13.8 Kva=300.0 %R=0.495
~ wdg=2 bus=node_408039883.1.2.3.4 conn=wye Kv=0.2200 Kva=300.0 %R=0.495
New Transformer.2591871360_2591871359 phases=3 windings=2 Xhl=4.900
~ wdg=1 bus=node_2744982671.1.2.3 conn=delta Kv=13.8 Kva=300.0 %R=0.495
~ wdg=2 bus=node_2744982686.1.2.3.4 conn=wye Kv=0.2200 Kva=300.0 %R=0.495
New Transformer.2688783177_2688783176 phases=3 windings=2 Xhl=3.840
~ wdg=1 bus=node_2864764495.1.2.3 conn=delta Kv=13.8 Kva=150.0 %R=0.565
~ wdg=2 bus=node_2864764459.1.2.3.4 conn=wye Kv=0.2200 Kva=150.0 %R=0.565
New Transformer.324761328_325841072 phases=3 windings=2 Xhl=3.840
~ wdg=1 bus=node_444488614.1.2.3 conn=delta Kv=13.8 Kva=150.0 %R=0.565
~ wdg=2 bus=node_407563057.1.2.3.4 conn=wye Kv=0.2200 Kva=150.0 %R=0.565
New Transformer.1709605188_1709605189 phases=3 windings=2 Xhl=3.840
~ wdg=1 bus=node_2035717578.1.2.3 conn=delta Kv=13.8 Kva=150.0 %R=0.565
~ wdg=2 bus=node_2035717514.1.2.3.4 conn=wye Kv=0.2200 Kva=150.0 %R=0.565
New Transformer.905231051_905231050 phases=3 windings=2 Xhl=3.840
~ wdg=1 bus=node_1166576788.1.2.3 conn=delta Kv=13.8 Kva=150.0 %R=0.565
~ wdg=2 bus=node_1166576856.1.2.3.4 conn=wye Kv=0.2200 Kva=150.0 %R=0.565
New Transformer.864128877_864128876 phases=3 windings=2 Xhl=3.840
~ wdg=1 bus=node_424374956.1.2.3 conn=delta Kv=13.8 Kva=150.0 %R=0.565
~ wdg=2 bus=node_1131756788.1.2.3.4 conn=wye Kv=0.2200 Kva=150.0 %R=0.565
New Transformer.1146772818_1146772817 phases=3 windings=2 Xhl=3.840
~ wdg=1 bus=node_445409015.1.2.3 conn=delta Kv=13.8 Kva=150.0 %R=0.565
~ wdg=2 bus=node_460226147.1.2.3.4 conn=wye Kv=0.2200 Kva=150.0 %R=0.565
New Transformer.324924392_2778716104 phases=3 windings=2 Xhl=4.960
~ wdg=1 bus=node_433652452.1.2.3 conn=delta Kv=13.8 Kva=150.0 %R=0.305
~ wdg=2 bus=node_407563333.1.2.3.4 conn=wye Kv=0.2200 Kva=150.0 %R=0.305
New Transformer.324924305_2623982825 phases=3 windings=2 Xhl=3.840
~ wdg=1 bus=node_2647568784.1.2.3 conn=delta Kv=13.8 Kva=150.0 %R=0.565
~ wdg=2 bus=node_462477497.1.2.3.4 conn=wye Kv=0.2200 Kva=150.0 %R=0.565
New Transformer.325175922_325841096 phases=3 windings=2 Xhl=3.840
~ wdg=1 bus=node_424373798.1.2.3 conn=delta Kv=13.8 Kva=150.0 %R=0.565
~ wdg=2 bus=node_407562610.1.2.3.4 conn=wye Kv=0.2200 Kva=150.0 %R=0.565
New Transformer.325175449_325841059 phases=3 windings=2 Xhl=3.840
~ wdg=1 bus=node_445408786.1.2.3 conn=delta Kv=13.8 Kva=150.0 %R=0.565
~ wdg=2 bus=node_407563804.1.2.3.4 conn=wye Kv=0.2200 Kva=150.0 %R=0.565
New Transformer.325173571_325774824 phases=3 windings=2 Xhl=3.840
~ wdg=1 bus=node_445409135.1.2.3 conn=delta Kv=13.8 Kva=150.0 %R=0.565
~ wdg=2 bus=node_407562667.1.2.3.4 conn=wye Kv=0.2200 Kva=150.0 %R=0.565
New Transformer.325172014_1440289350 phases=3 windings=2 Xhl=3.840
~ wdg=1 bus=node_424296566.1.2.3 conn=delta Kv=13.8 Kva=150.0 %R=0.565
~ wdg=2 bus=node_460967071.1.2.3.4 conn=wye Kv=0.2200 Kva=150.0 %R=0.565
New Transformer.325048703_884306361 phases=3 windings=2 Xhl=3.840
~ wdg=1 bus=node_431265585.1.2.3 conn=delta Kv=13.8 Kva=150.0 %R=0.565
~ wdg=2 bus=node_408152272.1.2.3.4 conn=wye Kv=0.2200 Kva=150.0 %R=0.565
New Transformer.325047248_325815576 phases=3 windings=2 Xhl=3.840
~ wdg=1 bus=node_424294958.1.2.3 conn=delta Kv=13.8 Kva=150.0 %R=0.565
~ wdg=2 bus=node_412469716.1.2.3.4 conn=wye Kv=0.2200 Kva=150.0 %R=0.565
New Transformer.324924703_325841071 phases=3 windings=2 Xhl=3.840
~ wdg=1 bus=node_434714668.1.2.3 conn=delta Kv=13.8 Kva=112.5 %R=0.565
~ wdg=2 bus=node_407562676.1.2.3.4 conn=wye Kv=0.2200 Kva=112.5 %R=0.565
New Transformer.324760099_325776020 phases=3 windings=2 Xhl=3.840
~ wdg=1 bus=node_445399304.1.2.3 conn=delta Kv=13.8 Kva=112.5 %R=0.565
~ wdg=2 bus=node_407563435.1.2.3.4 conn=wye Kv=0.2200 Kva=112.5 %R=0.565
New Transformer.325047236_325746426 phases=3 windings=2 Xhl=3.770
~ wdg=1 bus=node_445410444.1.2.3 conn=delta Kv=13.8 Kva=75.0 %R=0.670
~ wdg=2 bus=node_412469656.1.2.3.4 conn=wye Kv=0.2200 Kva=75.0 %R=0.670
New Transformer.325047279_325774865 phases=3 windings=2 Xhl=3.770
~ wdg=1 bus=node_444938480.1.2.3 conn=delta Kv=13.8 Kva=75.0 %R=0.670
~ wdg=2 bus=node_407562061.1.2.3.4 conn=wye Kv=0.2200 Kva=75.0 %R=0.670
New Transformer.325047665_325774846 phases=3 windings=2 Xhl=3.770
~ wdg=1 bus=node_433652867.1.2.3 conn=delta Kv=13.8 Kva=75.0 %R=0.670
~ wdg=2 bus=node_407562736.1.2.3.4 conn=wye Kv=0.2200 Kva=75.0 %R=0.670
New Transformer.325048022_756804618 phases=3 windings=2 Xhl=3.770
~ wdg=1 bus=node_431688826.1.2.3 conn=delta Kv=13.8 Kva=75.0 %R=0.670
~ wdg=2 bus=node_407563471.1.2.3.4 conn=wye Kv=0.2200 Kva=75.0 %R=0.670
New Transformer.325048088_325840857 phases=3 windings=2 Xhl=3.770
~ wdg=1 bus=node_431512552.1.2.3 conn=delta Kv=13.8 Kva=75.0 %R=0.670
~ wdg=2 bus=node_407564839.1.2.3.4 conn=wye Kv=0.2200 Kva=75.0 %R=0.670
New Transformer.325171958_325746177 phases=3 windings=2 Xhl=3.770
~ wdg=1 bus=node_424373090.1.2.3 conn=delta Kv=13.8 Kva=75.0 %R=0.670
~ wdg=2 bus=node_407612502.1.2.3.4 conn=wye Kv=0.2200 Kva=75.0 %R=0.670
New Transformer.325048498_325841062 phases=3 windings=2 Xhl=3.770
~ wdg=1 bus=node_445408881.1.2.3 conn=delta Kv=13.8 Kva=75.0 %R=0.670
~ wdg=2 bus=node_407563642.1.2.3.4 conn=wye Kv=0.2200 Kva=75.0 %R=0.670
New Transformer.325172038_325403316 phases=3 windings=2 Xhl=3.770
~ wdg=1 bus=node_433652882.1.2.3 conn=delta Kv=13.8 Kva=75.0 %R=0.670
~ wdg=2 bus=node_407562205.1.2.3.4 conn=wye Kv=0.2200 Kva=75.0 %R=0.670
New Transformer.325048523_325774764 phases=3 windings=2 Xhl=3.770
~ wdg=1 bus=node_445409175.1.2.3 conn=delta Kv=13.8 Kva=75.0 %R=0.670
~ wdg=2 bus=node_407563696.1.2.3.4 conn=wye Kv=0.2200 Kva=75.0 %R=0.670
New Transformer.325171921_325776341 phases=3 windings=2 Xhl=3.770
~ wdg=1 bus=node_428182624.1.2.3 conn=delta Kv=13.8 Kva=75.0 %R=0.670
~ wdg=2 bus=node_484333176.1.2.3.4 conn=wye Kv=0.2200 Kva=75.0 %R=0.670
New Transformer.325048899_325813999 phases=3 windings=2 Xhl=3.770
~ wdg=1 bus=node_431889015.1.2.3 conn=delta Kv=13.8 Kva=75.0 %R=0.670
~ wdg=2 bus=node_412469653.1.2.3.4 conn=wye Kv=0.2200 Kva=75.0 %R=0.670
New Transformer.325048798_325815536 phases=3 windings=2 Xhl=3.770
~ wdg=1 bus=node_424372083.1.2.3 conn=delta Kv=13.8 Kva=75.0 %R=0.670
~ wdg=2 bus=node_412469626.1.2.3.4 conn=wye Kv=0.2200 Kva=75.0 %R=0.670
New Transformer.325049613_325839641 phases=3 windings=2 Xhl=3.770
~ wdg=1 bus=node_424296571.1.2.3 conn=delta Kv=13.8 Kva=75.0 %R=0.670
~ wdg=2 bus=node_407562958.1.2.3.4 conn=wye Kv=0.2200 Kva=75.0 %R=0.670
New Transformer.325050106_325815479 phases=3 windings=2 Xhl=3.770
~ wdg=1 bus=node_445408651.1.2.3 conn=delta Kv=13.8 Kva=75.0 %R=0.670
~ wdg=2 bus=node_407563354.1.2.3.4 conn=wye Kv=0.2200 Kva=75.0 %R=0.670
New Transformer.325050315_325815494 phases=3 windings=2 Xhl=3.770
~ wdg=1 bus=node_445409329.1.2.3 conn=delta Kv=13.8 Kva=75.0 %R=0.670
~ wdg=2 bus=node_407563051.1.2.3.4 conn=wye Kv=0.2200 Kva=75.0 %R=0.670
New Transformer.325049878_325811569 phases=3 windings=2 Xhl=3.770
~ wdg=1 bus=node_444356675.1.2.3 conn=delta Kv=13.8 Kva=75.0 %R=0.670
~ wdg=2 bus=node_407562916.1.2.3.4 conn=wye Kv=0.2200 Kva=75.0 %R=0.670
New Transformer.325050404_325774863 phases=3 windings=2 Xhl=3.770
~ wdg=1 bus=node_444148128.1.2.3 conn=delta Kv=13.8 Kva=75.0 %R=0.670
~ wdg=2 bus=node_407562031.1.2.3.4 conn=wye Kv=0.2200 Kva=75.0 %R=0.670
New Transformer.325173439_325814469 phases=3 windings=2 Xhl=3.770
~ wdg=1 bus=node_444861252.1.2.3 conn=delta Kv=13.8 Kva=75.0 %R=0.670
~ wdg=2 bus=node_407695514.1.2.3.4 conn=wye Kv=0.2200 Kva=75.0 %R=0.670
New Transformer.325173613_325743803 phases=3 windings=2 Xhl=3.770
~ wdg=1 bus=node_431887264.1.2.3 conn=delta Kv=13.8 Kva=75.0 %R=0.670
~ wdg=2 bus=node_412469710.1.2.3.4 conn=wye Kv=0.2200 Kva=75.0 %R=0.670
New Transformer.325173651_325814000 phases=3 windings=2 Xhl=3.770
~ wdg=1 bus=node_424297678.1.2.3 conn=delta Kv=13.8 Kva=75.0 %R=0.670
~ wdg=2 bus=node_412470529.1.2.3.4 conn=wye Kv=0.2200 Kva=75.0 %R=0.670
New Transformer.325174663_325859445 phases=3 windings=2 Xhl=3.770
~ wdg=1 bus=node_424295523.1.2.3 conn=delta Kv=13.8 Kva=75.0 %R=0.670
~ wdg=2 bus=node_412469641.1.2.3.4 conn=wye Kv=0.2200 Kva=75.0 %R=0.670
New Transformer.325174556_325813922 phases=3 windings=2 Xhl=3.770
~ wdg=1 bus=node_424297074.1.2.3 conn=delta Kv=13.8 Kva=75.0 %R=0.670
~ wdg=2 bus=node_407563591.1.2.3.4 conn=wye Kv=0.2200 Kva=75.0 %R=0.670
New Transformer.325175317_325813964 phases=3 windings=2 Xhl=3.770
~ wdg=1 bus=node_2715624922.1.2.3 conn=delta Kv=13.8 Kva=75.0 %R=0.670
~ wdg=2 bus=node_407563006.1.2.3.4 conn=wye Kv=0.2200 Kva=75.0 %R=0.670
New Transformer.325175657_325813927 phases=3 windings=2 Xhl=3.770
~ wdg=1 bus=node_445410019.1.2.3 conn=delta Kv=13.8 Kva=75.0 %R=0.670
~ wdg=2 bus=node_407563387.1.2.3.4 conn=wye Kv=0.2200 Kva=75.0 %R=0.670
New Transformer.325175985_325745228 phases=3 windings=2 Xhl=3.770
~ wdg=1 bus=node_424294774.1.2.3 conn=delta Kv=13.8 Kva=75.0 %R=0.670
~ wdg=2 bus=node_409149723.1.2.3.4 conn=wye Kv=0.2200 Kva=75.0 %R=0.670
New Transformer.2207481358_2207481357 phases=3 windings=2 Xhl=3.770
~ wdg=1 bus=node_2513072944.1.2.3 conn=delta Kv=13.8 Kva=75.0 %R=0.670
~ wdg=2 bus=node_2513072910.1.2.3.4 conn=wye Kv=0.2200 Kva=75.0 %R=0.670
New Transformer.1048368439_1048368445 phases=3 windings=2 Xhl=3.770
~ wdg=1 bus=node_1314974694.1.2.3 conn=delta Kv=13.8 Kva=75.0 %R=0.670
~ wdg=2 bus=node_1314973834.1.2.3.4 conn=wye Kv=0.2200 Kva=75.0 %R=0.670
New Transformer.324923273_325743739 phases=3 windings=2 Xhl=3.770
~ wdg=1 bus=node_424295777.1.2.3 conn=delta Kv=13.8 Kva=75.0 %R=0.670
~ wdg=2 bus=node_407563168.1.2.3.4 conn=wye Kv=0.2200 Kva=75.0 %R=0.670
New Transformer.324923057_325743547 phases=3 windings=2 Xhl=3.770
~ wdg=1 bus=node_424296616.1.2.3 conn=delta Kv=13.8 Kva=75.0 %R=0.670
~ wdg=2 bus=node_407613030.1.2.3.4 conn=wye Kv=0.2200 Kva=75.0 %R=0.670
New Transformer.324922870_325403289 phases=3 windings=2 Xhl=3.770
~ wdg=1 bus=node_2857726784.1.2.3 conn=delta Kv=13.8 Kva=75.0 %R=0.670
~ wdg=2 bus=node_409150677.1.2.3.4 conn=wye Kv=0.2200 Kva=75.0 %R=0.670
New Transformer.324923936_325859358 phases=3 windings=2 Xhl=3.770
~ wdg=1 bus=node_442007162.1.2.3 conn=delta Kv=13.8 Kva=75.0 %R=0.670
~ wdg=2 bus=node_407563177.1.2.3.4 conn=wye Kv=0.2200 Kva=75.0 %R=0.670
New Transformer.324923605_325776018 phases=3 windings=2 Xhl=3.770
~ wdg=1 bus=node_431689645.1.2.3 conn=delta Kv=13.8 Kva=75.0 %R=0.670
~ wdg=2 bus=node_407562649.1.2.3.4 conn=wye Kv=0.2200 Kva=75.0 %R=0.670
New Transformer.324924253_325815480 phases=3 windings=2 Xhl=3.770
~ wdg=1 bus=node_442204811.1.2.3 conn=delta Kv=13.8 Kva=75.0 %R=0.670
~ wdg=2 bus=node_407562976.1.2.3.4 conn=wye Kv=0.2200 Kva=75.0 %R=0.670
New Transformer.324923826_325814605 phases=3 windings=2 Xhl=3.770
~ wdg=1 bus=node_444938266.1.2.3 conn=delta Kv=13.8 Kva=75.0 %R=0.670
~ wdg=2 bus=node_407562595.1.2.3.4 conn=wye Kv=0.2200 Kva=75.0 %R=0.670
New Transformer.324924932_945087936 phases=3 windings=2 Xhl=3.770
~ wdg=1 bus=node_444937521.1.2.3 conn=delta Kv=13.8 Kva=75.0 %R=0.670
~ wdg=2 bus=node_407612724.1.2.3.4 conn=wye Kv=0.2200 Kva=75.0 %R=0.670
New Transformer.324924516_325859356 phases=3 windings=2 Xhl=3.770
~ wdg=1 bus=node_431512261.1.2.3 conn=delta Kv=13.8 Kva=75.0 %R=0.670
~ wdg=2 bus=node_407563405.1.2.3.4 conn=wye Kv=0.2200 Kva=75.0 %R=0.670
New Transformer.324925124_325813921 phases=3 windings=2 Xhl=3.770
~ wdg=1 bus=node_445399289.1.2.3 conn=delta Kv=13.8 Kva=75.0 %R=0.670
~ wdg=2 bus=node_407563348.1.2.3.4 conn=wye Kv=0.2200 Kva=75.0 %R=0.670
New Transformer.324924693_325841024 phases=3 windings=2 Xhl=3.770
~ wdg=1 bus=node_1963084170.1.2.3 conn=delta Kv=13.8 Kva=75.0 %R=0.670
~ wdg=2 bus=node_407562271.1.2.3.4 conn=wye Kv=0.2200 Kva=75.0 %R=0.670
New Transformer.324924787_325774821 phases=3 windings=2 Xhl=3.770
~ wdg=1 bus=node_427426558.1.2.3 conn=delta Kv=13.8 Kva=75.0 %R=0.670
~ wdg=2 bus=node_407562901.1.2.3.4 conn=wye Kv=0.2200 Kva=75.0 %R=0.670
New Transformer.324925161_1548390636 phases=3 windings=2 Xhl=3.770
~ wdg=1 bus=node_424296965.1.2.3 conn=delta Kv=13.8 Kva=75.0 %R=0.670
~ wdg=2 bus=node_407563078.1.2.3.4 conn=wye Kv=0.2200 Kva=75.0 %R=0.670
New Transformer.324925642_325815535 phases=3 windings=2 Xhl=3.770
~ wdg=1 bus=node_424295503.1.2.3 conn=delta Kv=13.8 Kva=75.0 %R=0.670
~ wdg=2 bus=node_412469620.1.2.3.4 conn=wye Kv=0.2200 Kva=75.0 %R=0.670
New Transformer.324925505_637263953 phases=3 windings=2 Xhl=3.770
~ wdg=1 bus=node_444939080.1.2.3 conn=delta Kv=13.8 Kva=75.0 %R=0.670
~ wdg=2 bus=node_407562412.1.2.3.4 conn=wye Kv=0.2200 Kva=75.0 %R=0.670
New Transformer.324926013_325839963 phases=3 windings=2 Xhl=3.770
~ wdg=1 bus=node_434714340.1.2.3 conn=delta Kv=13.8 Kva=75.0 %R=0.670
~ wdg=2 bus=node_409152441.1.2.3.4 conn=wye Kv=0.2200 Kva=75.0 %R=0.670
New Transformer.324926318_325746393 phases=3 windings=2 Xhl=3.770
~ wdg=1 bus=node_445409414.1.2.3 conn=delta Kv=13.8 Kva=75.0 %R=0.670
~ wdg=2 bus=node_407562643.1.2.3.4 conn=wye Kv=0.2200 Kva=75.0 %R=0.670
New Transformer.324926346_325813926 phases=3 windings=2 Xhl=3.770
~ wdg=1 bus=node_445409630.1.2.3 conn=delta Kv=13.8 Kva=75.0 %R=0.670
~ wdg=2 bus=node_407563306.1.2.3.4 conn=wye Kv=0.2200 Kva=75.0 %R=0.670
New Transformer.324926202_325815483 phases=3 windings=2 Xhl=3.770
~ wdg=1 bus=node_431510822.1.2.3 conn=delta Kv=13.8 Kva=75.0 %R=0.670
~ wdg=2 bus=node_407563603.1.2.3.4 conn=wye Kv=0.2200 Kva=75.0 %R=0.670
New Transformer.324926211_325859407 phases=3 windings=2 Xhl=3.770
~ wdg=1 bus=node_445398247.1.2.3 conn=delta Kv=13.8 Kva=75.0 %R=0.670
~ wdg=2 bus=node_407562799.1.2.3.4 conn=wye Kv=0.2200 Kva=75.0 %R=0.670
New Transformer.324926773_1200336172 phases=3 windings=2 Xhl=3.770
~ wdg=1 bus=node_766556337.1.2.3 conn=delta Kv=13.8 Kva=75.0 %R=0.670
~ wdg=2 bus=node_766556431.1.2.3.4 conn=wye Kv=0.2200 Kva=75.0 %R=0.670
New Transformer.324380741_325746341 phases=3 windings=2 Xhl=3.770
~ wdg=1 bus=node_431510537.1.2.3 conn=delta Kv=13.8 Kva=75.0 %R=0.670
~ wdg=2 bus=node_407562274.1.2.3.4 conn=wye Kv=0.2200 Kva=75.0 %R=0.670
New Transformer.324381423_325860873 phases=3 windings=2 Xhl=3.770
~ wdg=1 bus=node_433651442.1.2.3 conn=delta Kv=13.8 Kva=75.0 %R=0.670
~ wdg=2 bus=node_412427732.1.2.3.4 conn=wye Kv=0.2200 Kva=75.0 %R=0.670
New Transformer.324380950_325743791 phases=3 windings=2 Xhl=3.770
~ wdg=1 bus=node_444938331.1.2.3 conn=delta Kv=13.8 Kva=75.0 %R=0.670
~ wdg=2 bus=node_484141134.1.2.3.4 conn=wye Kv=0.2200 Kva=75.0 %R=0.670
New Transformer.324381286_1628074394 phases=3 windings=2 Xhl=3.770
~ wdg=1 bus=node_444357616.1.2.3 conn=delta Kv=13.8 Kva=75.0 %R=0.670
~ wdg=2 bus=node_407563429.1.2.3.4 conn=wye Kv=0.2200 Kva=75.0 %R=0.670
New Transformer.1630998958_1630998957 phases=3 windings=2 Xhl=3.770
~ wdg=1 bus=node_1951155345.1.2.3 conn=delta Kv=13.8 Kva=75.0 %R=0.670
~ wdg=2 bus=node_1951155568.1.2.3.4 conn=wye Kv=0.2200 Kva=75.0 %R=0.670
New Transformer.324759871_325774644 phases=3 windings=2 Xhl=3.770
~ wdg=1 bus=node_444937981.1.2.3 conn=delta Kv=13.8 Kva=75.0 %R=0.670
~ wdg=2 bus=node_407564395.1.2.3.4 conn=wye Kv=0.2200 Kva=75.0 %R=0.670
New Transformer.324760230_875284666 phases=3 windings=2 Xhl=3.770
~ wdg=1 bus=node_444938510.1.2.3 conn=delta Kv=13.8 Kva=75.0 %R=0.670
~ wdg=2 bus=node_407562088.1.2.3.4 conn=wye Kv=0.2200 Kva=75.0 %R=0.670
New Transformer.324760440_325859268 phases=3 windings=2 Xhl=3.770
~ wdg=1 bus=node_424294630.1.2.3 conn=delta Kv=13.8 Kva=75.0 %R=0.670
~ wdg=2 bus=node_484809443.1.2.3.4 conn=wye Kv=0.2200 Kva=75.0 %R=0.670
New Transformer.324760773_1350381414 phases=3 windings=2 Xhl=3.770
~ wdg=1 bus=node_445408591.1.2.3 conn=delta Kv=13.8 Kva=75.0 %R=0.670
~ wdg=2 bus=node_407563759.1.2.3.4 conn=wye Kv=0.2200 Kva=75.0 %R=0.670
New Transformer.324761241_325743741 phases=3 windings=2 Xhl=3.770
~ wdg=1 bus=node_445409180.1.2.3 conn=delta Kv=13.8 Kva=75.0 %R=0.670
~ wdg=2 bus=node_407562661.1.2.3.4 conn=wye Kv=0.2200 Kva=75.0 %R=0.670
New Transformer.324761577_2296667426 phases=3 windings=2 Xhl=3.770
~ wdg=1 bus=node_431689736.1.2.3 conn=delta Kv=13.8 Kva=75.0 %R=0.670
~ wdg=2 bus=node_407563081.1.2.3.4 conn=wye Kv=0.2200 Kva=75.0 %R=0.670
New Transformer.324761441_325859693 phases=3 windings=2 Xhl=3.770
~ wdg=1 bus=node_431691226.1.2.3 conn=delta Kv=13.8 Kva=75.0 %R=0.670
~ wdg=2 bus=node_408149422.1.2.3.4 conn=wye Kv=0.2200 Kva=75.0 %R=0.670
New Transformer.324761813_325776064 phases=3 windings=2 Xhl=3.770
~ wdg=1 bus=node_433651428.1.2.3 conn=delta Kv=13.8 Kva=75.0 %R=0.670
~ wdg=2 bus=node_461190668.1.2.3.4 conn=wye Kv=0.2200 Kva=75.0 %R=0.670
New Transformer.324762252_325840793 phases=3 windings=2 Xhl=3.770
~ wdg=1 bus=node_431266614.1.2.3 conn=delta Kv=13.8 Kva=75.0 %R=0.670
~ wdg=2 bus=node_407612649.1.2.3.4 conn=wye Kv=0.2200 Kva=75.0 %R=0.670
New Transformer.2062103615_2062103631 phases=3 windings=2 Xhl=3.770
~ wdg=1 bus=node_2375415467.1.2.3 conn=delta Kv=13.8 Kva=75.0 %R=0.670
~ wdg=2 bus=node_2375415355.1.2.3.4 conn=wye Kv=0.2200 Kva=75.0 %R=0.670
New Transformer.324762452_325746424 phases=3 windings=2 Xhl=3.770
~ wdg=1 bus=node_424295433.1.2.3 conn=delta Kv=13.8 Kva=75.0 %R=0.670
~ wdg=2 bus=node_412469734.1.2.3.4 conn=wye Kv=0.2200 Kva=75.0 %R=0.670
New Transformer.324762874_325774857 phases=3 windings=2 Xhl=3.770
~ wdg=1 bus=node_2773842746.1.2.3 conn=delta Kv=13.8 Kva=75.0 %R=0.670
~ wdg=2 bus=node_2773842735.1.2.3.4 conn=wye Kv=0.2200 Kva=75.0 %R=0.670
New Transformer.324763067_325743804 phases=3 windings=2 Xhl=3.770
~ wdg=1 bus=node_444862070.1.2.3 conn=delta Kv=13.8 Kva=75.0 %R=0.670
~ wdg=2 bus=node_412469893.1.2.3.4 conn=wye Kv=0.2200 Kva=75.0 %R=0.670
New Transformer.324763111_325746339 phases=3 windings=2 Xhl=3.770
~ wdg=1 bus=node_424297398.1.2.3 conn=delta Kv=13.8 Kva=75.0 %R=0.670
~ wdg=2 bus=node_407562841.1.2.3.4 conn=wye Kv=0.2200 Kva=75.0 %R=0.670
New Transformer.324763049_325745296 phases=3 windings=2 Xhl=3.770
~ wdg=1 bus=node_444862491.1.2.3 conn=delta Kv=13.8 Kva=75.0 %R=0.670
~ wdg=2 bus=node_409222693.1.2.3.4 conn=wye Kv=0.2200 Kva=75.0 %R=0.670
New Transformer.324763514_325746336 phases=3 windings=2 Xhl=3.770
~ wdg=1 bus=node_445408207.1.2.3 conn=delta Kv=13.8 Kva=75.0 %R=0.670
~ wdg=2 bus=node_1672461497.1.2.3.4 conn=wye Kv=0.2200 Kva=75.0 %R=0.670
New Transformer.324763532_325746335 phases=3 windings=2 Xhl=3.770
~ wdg=1 bus=node_444861605.1.2.3 conn=delta Kv=13.8 Kva=75.0 %R=0.670
~ wdg=2 bus=node_407563705.1.2.3.4 conn=wye Kv=0.2200 Kva=75.0 %R=0.670
New Transformer.324763620_325745271 phases=3 windings=2 Xhl=3.770
~ wdg=1 bus=node_445398582.1.2.3 conn=delta Kv=13.8 Kva=75.0 %R=0.670
~ wdg=2 bus=node_409151418.1.2.3.4 conn=wye Kv=0.2200 Kva=75.0 %R=0.670
New Transformer.324763663_325746325 phases=3 windings=2 Xhl=3.770
~ wdg=1 bus=node_442205752.1.2.3 conn=delta Kv=13.8 Kva=75.0 %R=0.670
~ wdg=2 bus=node_407563318.1.2.3.4 conn=wye Kv=0.2200 Kva=75.0 %R=0.670
New Transformer.324763583_325746340 phases=3 windings=2 Xhl=3.770
~ wdg=1 bus=node_445398362.1.2.3 conn=delta Kv=13.8 Kva=75.0 %R=0.670
~ wdg=2 bus=node_407562991.1.2.3.4 conn=wye Kv=0.2200 Kva=75.0 %R=0.670
New Transformer.324763574_325746326 phases=3 windings=2 Xhl=3.770
~ wdg=1 bus=node_445409194.1.2.3 conn=delta Kv=13.8 Kva=75.0 %R=0.670
~ wdg=2 bus=node_407562928.1.2.3.4 conn=wye Kv=0.2200 Kva=75.0 %R=0.670
New Transformer.324763595_2544380866 phases=3 windings=2 Xhl=3.770
~ wdg=1 bus=node_444937791.1.2.3 conn=delta Kv=13.8 Kva=75.0 %R=0.670
~ wdg=2 bus=node_407562640.1.2.3.4 conn=wye Kv=0.2200 Kva=75.0 %R=0.670
New Transformer.325399365_325774807 phases=3 windings=2 Xhl=3.770
~ wdg=1 bus=node_445409011.1.2.3 conn=delta Kv=13.8 Kva=75.0 %R=0.670
~ wdg=2 bus=node_407563321.1.2.3.4 conn=wye Kv=0.2200 Kva=75.0 %R=0.670
New Transformer.325399883_890627128 phases=3 windings=2 Xhl=3.770
~ wdg=1 bus=node_445399299.1.2.3 conn=delta Kv=13.8 Kva=75.0 %R=0.670
~ wdg=2 bus=node_407563279.1.2.3.4 conn=wye Kv=0.2200 Kva=75.0 %R=0.670
New Transformer.325399959_1833392005 phases=3 windings=2 Xhl=3.770
~ wdg=1 bus=node_444862541.1.2.3 conn=delta Kv=13.8 Kva=75.0 %R=0.670
~ wdg=2 bus=node_407561995.1.2.3.4 conn=wye Kv=0.2200 Kva=75.0 %R=0.670
New Transformer.325400395_325815489 phases=3 windings=2 Xhl=3.770
~ wdg=1 bus=node_433653337.1.2.3 conn=delta Kv=13.8 Kva=75.0 %R=0.670
~ wdg=2 bus=node_407562187.1.2.3.4 conn=wye Kv=0.2200 Kva=75.0 %R=0.670
New Transformer.325400255_325746346 phases=3 windings=2 Xhl=3.770
~ wdg=1 bus=node_444148122.1.2.3 conn=delta Kv=13.8 Kva=75.0 %R=0.670
~ wdg=2 bus=node_407561977.1.2.3.4 conn=wye Kv=0.2200 Kva=75.0 %R=0.670
New Transformer.325399995_1441178289 phases=3 windings=2 Xhl=3.770
~ wdg=1 bus=node_1737473015.1.2.3 conn=delta Kv=13.8 Kva=75.0 %R=0.670
~ wdg=2 bus=node_484493443.1.2.3.4 conn=wye Kv=0.2200 Kva=75.0 %R=0.670
New Transformer.325400270_325813960 phases=3 windings=2 Xhl=3.770
~ wdg=1 bus=node_424297627.1.2.3 conn=delta Kv=13.8 Kva=75.0 %R=0.670
~ wdg=2 bus=node_407562115.1.2.3.4 conn=wye Kv=0.2200 Kva=75.0 %R=0.670
New Transformer.325401315_325859353 phases=3 windings=2 Xhl=3.770
~ wdg=1 bus=node_445408775.1.2.3 conn=delta Kv=13.8 Kva=75.0 %R=0.670
~ wdg=2 bus=node_407563132.1.2.3.4 conn=wye Kv=0.2200 Kva=75.0 %R=0.670
New Transformer.325401473_325859444 phases=3 windings=2 Xhl=3.770
~ wdg=1 bus=node_431889384.1.2.3 conn=delta Kv=13.8 Kva=75.0 %R=0.670
~ wdg=2 bus=node_412469965.1.2.3.4 conn=wye Kv=0.2200 Kva=75.0 %R=0.670
New Transformer.325401851_325743722 phases=3 windings=2 Xhl=3.770
~ wdg=1 bus=node_424297144.1.2.3 conn=delta Kv=13.8 Kva=75.0 %R=0.670
~ wdg=2 bus=node_407563363.1.2.3.4 conn=wye Kv=0.2200 Kva=75.0 %R=0.670
New Transformer.325401970_325743902 phases=3 windings=2 Xhl=3.770
~ wdg=1 bus=node_444938590.1.2.3 conn=delta Kv=13.8 Kva=75.0 %R=0.670
~ wdg=2 bus=node_407562568.1.2.3.4 conn=wye Kv=0.2200 Kva=75.0 %R=0.670
New Transformer.325047371_325838288 phases=3 windings=2 Xhl=3.700
~ wdg=1 bus=node_444148103.1.2.3 conn=delta Kv=13.8 Kva=45.0 %R=0.760
~ wdg=2 bus=node_420923911.1.2.3.4 conn=wye Kv=0.2200 Kva=45.0 %R=0.760
New Transformer.325047434_325776012 phases=3 windings=2 Xhl=3.700
~ wdg=1 bus=node_445409155.1.2.3 conn=delta Kv=13.8 Kva=45.0 %R=0.760
~ wdg=2 bus=node_407562355.1.2.3.4 conn=wye Kv=0.2200 Kva=45.0 %R=0.760
New Transformer.325047440_325841060 phases=3 windings=2 Xhl=3.700
~ wdg=1 bus=node_431510382.1.2.3 conn=delta Kv=13.8 Kva=45.0 %R=0.760
~ wdg=2 bus=node_407563765.1.2.3.4 conn=wye Kv=0.2200 Kva=45.0 %R=0.760
New Transformer.325047552_325775831 phases=3 windings=2 Xhl=3.700
~ wdg=1 bus=node_431511146.1.2.3 conn=delta Kv=13.8 Kva=45.0 %R=0.760
~ wdg=2 bus=node_407564914.1.2.3.4 conn=wye Kv=0.2200 Kva=45.0 %R=0.760
New Transformer.325047608_325776043 phases=3 windings=2 Xhl=3.700
~ wdg=1 bus=node_424296724.1.2.3 conn=delta Kv=13.8 Kva=45.0 %R=0.760
~ wdg=2 bus=node_407562856.1.2.3.4 conn=wye Kv=0.2200 Kva=45.0 %R=0.760
New Transformer.325047412_325860954 phases=3 windings=2 Xhl=3.700
~ wdg=1 bus=node_424373134.1.2.3 conn=delta Kv=13.8 Kva=45.0 %R=0.760
~ wdg=2 bus=node_407562637.1.2.3.4 conn=wye Kv=0.2200 Kva=45.0 %R=0.760
New Transformer.325047247_2702875535 phases=3 windings=2 Xhl=3.700
~ wdg=1 bus=node_431266869.1.2.3 conn=delta Kv=13.8 Kva=45.0 %R=0.760
~ wdg=2 bus=node_407562616.1.2.3.4 conn=wye Kv=0.2200 Kva=45.0 %R=0.760
New Transformer.325047484_325746396 phases=3 windings=2 Xhl=3.700
~ wdg=1 bus=node_445409735.1.2.3 conn=delta Kv=13.8 Kva=45.0 %R=0.760
~ wdg=2 bus=node_407562664.1.2.3.4 conn=wye Kv=0.2200 Kva=45.0 %R=0.760
New Transformer.325047870_325841078 phases=3 windings=2 Xhl=3.700
~ wdg=1 bus=node_427426503.1.2.3 conn=delta Kv=13.8 Kva=45.0 %R=0.760
~ wdg=2 bus=node_407562334.1.2.3.4 conn=wye Kv=0.2200 Kva=45.0 %R=0.760
New Transformer.325047743_325743736 phases=3 windings=2 Xhl=3.700
~ wdg=1 bus=node_444939120.1.2.3 conn=delta Kv=13.8 Kva=45.0 %R=0.760
~ wdg=2 bus=node_407563639.1.2.3.4 conn=wye Kv=0.2200 Kva=45.0 %R=0.760
New Transformer.325047802_325774533 phases=3 windings=2 Xhl=3.700
~ wdg=1 bus=node_445410074.1.2.3 conn=delta Kv=13.8 Kva=45.0 %R=0.760
~ wdg=2 bus=node_407562439.1.2.3.4 conn=wye Kv=0.2200 Kva=45.0 %R=0.760
New Transformer.325047976_325774806 phases=3 windings=2 Xhl=3.700
~ wdg=1 bus=node_445409525.1.2.3 conn=delta Kv=13.8 Kva=45.0 %R=0.760
~ wdg=2 bus=node_407562400.1.2.3.4 conn=wye Kv=0.2200 Kva=45.0 %R=0.760
New Transformer.325048054_325859390 phases=3 windings=2 Xhl=3.700
~ wdg=1 bus=node_427426293.1.2.3 conn=delta Kv=13.8 Kva=45.0 %R=0.760
~ wdg=2 bus=node_407562016.1.2.3.4 conn=wye Kv=0.2200 Kva=45.0 %R=0.760
New Transformer.325048149_325746330 phases=3 windings=2 Xhl=3.700
~ wdg=1 bus=node_431511132.1.2.3 conn=delta Kv=13.8 Kva=45.0 %R=0.760
~ wdg=2 bus=node_407563624.1.2.3.4 conn=wye Kv=0.2200 Kva=45.0 %R=0.760
New Transformer.325048129_926301683 phases=3 windings=2 Xhl=3.700
~ wdg=1 bus=node_427426463.1.2.3 conn=delta Kv=13.8 Kva=45.0 %R=0.760
~ wdg=2 bus=node_407614020.1.2.3.4 conn=wye Kv=0.2200 Kva=45.0 %R=0.760
New Transformer.325048170_325776049 phases=3 windings=2 Xhl=3.700
~ wdg=1 bus=node_424373154.1.2.3 conn=delta Kv=13.8 Kva=45.0 %R=0.760
~ wdg=2 bus=node_407562106.1.2.3.4 conn=wye Kv=0.2200 Kva=45.0 %R=0.760
New Transformer.325048177_325774531 phases=3 windings=2 Xhl=3.700
~ wdg=1 bus=node_428183619.1.2.3 conn=delta Kv=13.8 Kva=45.0 %R=0.760
~ wdg=2 bus=node_407564689.1.2.3.4 conn=wye Kv=0.2200 Kva=45.0 %R=0.760
New Transformer.325048748_325811816 phases=3 windings=2 Xhl=3.700
~ wdg=1 bus=node_431691376.1.2.3 conn=delta Kv=13.8 Kva=45.0 %R=0.760
~ wdg=2 bus=node_407563264.1.2.3.4 conn=wye Kv=0.2200 Kva=45.0 %R=0.760
New Transformer.325048853_325776050 phases=3 windings=2 Xhl=3.700
~ wdg=1 bus=node_428387426.1.2.3 conn=delta Kv=13.8 Kva=45.0 %R=0.760
~ wdg=2 bus=node_407562052.1.2.3.4 conn=wye Kv=0.2200 Kva=45.0 %R=0.760
New Transformer.325048904_325743740 phases=3 windings=2 Xhl=3.700
~ wdg=1 bus=node_442204781.1.2.3 conn=delta Kv=13.8 Kva=45.0 %R=0.760
~ wdg=2 bus=node_407563330.1.2.3.4 conn=wye Kv=0.2200 Kva=45.0 %R=0.760
New Transformer.325171995_325815477 phases=3 windings=2 Xhl=3.700
~ wdg=1 bus=node_431511926.1.2.3 conn=delta Kv=13.8 Kva=45.0 %R=0.760
~ wdg=2 bus=node_407563783.1.2.3.4 conn=wye Kv=0.2200 Kva=45.0 %R=0.760
New Transformer.325172384_325403299 phases=3 windings=2 Xhl=3.700
~ wdg=1 bus=node_424295806.1.2.3 conn=delta Kv=13.8 Kva=45.0 %R=0.760
~ wdg=2 bus=node_407563747.1.2.3.4 conn=wye Kv=0.2200 Kva=45.0 %R=0.760
New Transformer.325172394_325775708 phases=3 windings=2 Xhl=3.700
~ wdg=1 bus=node_445398386.1.2.3 conn=delta Kv=13.8 Kva=45.0 %R=0.760
~ wdg=2 bus=node_412470535.1.2.3.4 conn=wye Kv=0.2200 Kva=45.0 %R=0.760
New Transformer.325172280_325811821 phases=3 windings=2 Xhl=3.700
~ wdg=1 bus=node_444936886.1.2.3 conn=delta Kv=13.8 Kva=45.0 %R=0.760
~ wdg=2 bus=node_514158737.1.2.3.4 conn=wye Kv=0.2200 Kva=45.0 %R=0.760
New Transformer.325172282_325743799 phases=3 windings=2 Xhl=3.700
~ wdg=1 bus=node_445398837.1.2.3 conn=delta Kv=13.8 Kva=45.0 %R=0.760
~ wdg=2 bus=node_412470517.1.2.3.4 conn=wye Kv=0.2200 Kva=45.0 %R=0.760
New Transformer.325048944_325814241 phases=3 windings=2 Xhl=3.700
~ wdg=1 bus=node_428386992.1.2.3 conn=delta Kv=13.8 Kva=45.0 %R=0.760
~ wdg=2 bus=node_407612688.1.2.3.4 conn=wye Kv=0.2200 Kva=45.0 %R=0.760
New Transformer.325172285_325814187 phases=3 windings=2 Xhl=3.700
~ wdg=1 bus=node_433653277.1.2.3 conn=delta Kv=13.8 Kva=45.0 %R=0.760
~ wdg=2 bus=node_412470538.1.2.3.4 conn=wye Kv=0.2200 Kva=45.0 %R=0.760
New Transformer.325172104_2050264768 phases=3 windings=2 Xhl=3.700
~ wdg=1 bus=node_445408715.1.2.3 conn=delta Kv=13.8 Kva=45.0 %R=0.760
~ wdg=2 bus=node_407563723.1.2.3.4 conn=wye Kv=0.2200 Kva=45.0 %R=0.760
New Transformer.325172101_325773735 phases=3 windings=2 Xhl=3.700
~ wdg=1 bus=node_444485561.1.2.3 conn=delta Kv=13.8 Kva=45.0 %R=0.760
~ wdg=2 bus=node_409225423.1.2.3.4 conn=wye Kv=0.2200 Kva=45.0 %R=0.760
New Transformer.325049325_490662498 phases=3 windings=2 Xhl=3.700
~ wdg=1 bus=node_424294753.1.2.3 conn=delta Kv=13.8 Kva=45.0 %R=0.760
~ wdg=2 bus=node_407923419.1.2.3.4 conn=wye Kv=0.2200 Kva=45.0 %R=0.760
New Transformer.325172615_325776065 phases=3 windings=2 Xhl=3.700
~ wdg=1 bus=node_424294480.1.2.3 conn=delta Kv=13.8 Kva=45.0 %R=0.760
~ wdg=2 bus=node_412469704.1.2.3.4 conn=wye Kv=0.2200 Kva=45.0 %R=0.760
New Transformer.325049157_325839958 phases=3 windings=2 Xhl=3.700
~ wdg=1 bus=node_444147626.1.2.3 conn=delta Kv=13.8 Kva=45.0 %R=0.760
~ wdg=2 bus=node_498281715.1.2.3.4 conn=wye Kv=0.2200 Kva=45.0 %R=0.760
New Transformer.325172330_325774855 phases=3 windings=2 Xhl=3.700
~ wdg=1 bus=node_424298620.1.2.3 conn=delta Kv=13.8 Kva=45.0 %R=0.760
~ wdg=2 bus=node_407562583.1.2.3.4 conn=wye Kv=0.2200 Kva=45.0 %R=0.760
New Transformer.325049190_325776015 phases=3 windings=2 Xhl=3.700
~ wdg=1 bus=node_444938749.1.2.3 conn=delta Kv=13.8 Kva=45.0 %R=0.760
~ wdg=2 bus=node_407562415.1.2.3.4 conn=wye Kv=0.2200 Kva=45.0 %R=0.760
New Transformer.325172236_325814468 phases=3 windings=2 Xhl=3.700
~ wdg=1 bus=node_444488494.1.2.3 conn=delta Kv=13.8 Kva=45.0 %R=0.760
~ wdg=2 bus=node_407737877.1.2.3.4 conn=wye Kv=0.2200 Kva=45.0 %R=0.760
New Transformer.325172849_325775976 phases=3 windings=2 Xhl=3.700
~ wdg=1 bus=node_445399264.1.2.3 conn=delta Kv=13.8 Kva=45.0 %R=0.760
~ wdg=2 bus=node_484881839.1.2.3.4 conn=wye Kv=0.2200 Kva=45.0 %R=0.760
New Transformer.325172511_325841065 phases=3 windings=2 Xhl=3.700
~ wdg=1 bus=node_444861406.1.2.3 conn=delta Kv=13.8 Kva=45.0 %R=0.760
~ wdg=2 bus=node_407562952.1.2.3.4 conn=wye Kv=0.2200 Kva=45.0 %R=0.760
New Transformer.325049575_325743735 phases=3 windings=2 Xhl=3.700
~ wdg=1 bus=node_444937350.1.2.3 conn=delta Kv=13.8 Kva=45.0 %R=0.760
~ wdg=2 bus=node_407562154.1.2.3.4 conn=wye Kv=0.2200 Kva=45.0 %R=0.760
New Transformer.325172724_325813925 phases=3 windings=2 Xhl=3.700
~ wdg=1 bus=node_445409675.1.2.3 conn=delta Kv=13.8 Kva=45.0 %R=0.760
~ wdg=2 bus=node_407562907.1.2.3.4 conn=wye Kv=0.2200 Kva=45.0 %R=0.760
New Transformer.325049686_2200675000 phases=3 windings=2 Xhl=3.700
~ wdg=1 bus=node_431511521.1.2.3 conn=delta Kv=13.8 Kva=45.0 %R=0.760
~ wdg=2 bus=node_407564377.1.2.3.4 conn=wye Kv=0.2200 Kva=45.0 %R=0.760
New Transformer.325172827_325811888 phases=3 windings=2 Xhl=3.700
~ wdg=1 bus=node_444937761.1.2.3 conn=delta Kv=13.8 Kva=45.0 %R=0.760
~ wdg=2 bus=node_514221588.1.2.3.4 conn=wye Kv=0.2200 Kva=45.0 %R=0.760
New Transformer.325049476_325860812 phases=3 windings=2 Xhl=3.700
~ wdg=1 bus=node_424374857.1.2.3 conn=delta Kv=13.8 Kva=45.0 %R=0.760
~ wdg=2 bus=node_497712509.1.2.3.4 conn=wye Kv=0.2200 Kva=45.0 %R=0.760
New Transformer.325049615_325773809 phases=3 windings=2 Xhl=3.700
~ wdg=1 bus=node_1672070995.1.2.3 conn=delta Kv=13.8 Kva=45.0 %R=0.760
~ wdg=2 bus=node_409022813.1.2.3.4 conn=wye Kv=0.2200 Kva=45.0 %R=0.760
New Transformer.325049513_325838596 phases=3 windings=2 Xhl=3.700
~ wdg=1 bus=node_434714673.1.2.3 conn=delta Kv=13.8 Kva=45.0 %R=0.760
~ wdg=2 bus=node_409151394.1.2.3.4 conn=wye Kv=0.2200 Kva=45.0 %R=0.760
New Transformer.325050066_325774823 phases=3 windings=2 Xhl=3.700
~ wdg=1 bus=node_428387226.1.2.3 conn=delta Kv=13.8 Kva=45.0 %R=0.760
~ wdg=2 bus=node_407562157.1.2.3.4 conn=wye Kv=0.2200 Kva=45.0 %R=0.760
New Transformer.325172974_325776023 phases=3 windings=2 Xhl=3.700
~ wdg=1 bus=node_442205656.1.2.3 conn=delta Kv=13.8 Kva=45.0 %R=0.760
~ wdg=2 bus=node_407563336.1.2.3.4 conn=wye Kv=0.2200 Kva=45.0 %R=0.760
New Transformer.325172962_325774820 phases=3 windings=2 Xhl=3.700
~ wdg=1 bus=node_444148860.1.2.3 conn=delta Kv=13.8 Kva=45.0 %R=0.760
~ wdg=2 bus=node_407562151.1.2.3.4 conn=wye Kv=0.2200 Kva=45.0 %R=0.760
New Transformer.325172996_325837361 phases=3 windings=2 Xhl=3.700
~ wdg=1 bus=node_428387457.1.2.3 conn=delta Kv=13.8 Kva=45.0 %R=0.760
~ wdg=2 bus=node_408150712.1.2.3.4 conn=wye Kv=0.2200 Kva=45.0 %R=0.760
New Transformer.325173235_325837327 phases=3 windings=2 Xhl=3.700
~ wdg=1 bus=node_444861716.1.2.3 conn=delta Kv=13.8 Kva=45.0 %R=0.760
~ wdg=2 bus=node_408040162.1.2.3.4 conn=wye Kv=0.2200 Kva=45.0 %R=0.760
New Transformer.325050307_325839676 phases=3 windings=2 Xhl=3.700
~ wdg=1 bus=node_424374442.1.2.3 conn=delta Kv=13.8 Kva=45.0 %R=0.760
~ wdg=2 bus=node_409086265.1.2.3.4 conn=wye Kv=0.2200 Kva=45.0 %R=0.760
New Transformer.325173606_325743788 phases=3 windings=2 Xhl=3.700
~ wdg=1 bus=node_428387512.1.2.3 conn=delta Kv=13.8 Kva=45.0 %R=0.760
~ wdg=2 bus=node_407562613.1.2.3.4 conn=wye Kv=0.2200 Kva=45.0 %R=0.760
New Transformer.325173153_325815517 phases=3 windings=2 Xhl=3.700
~ wdg=1 bus=node_431266354.1.2.3 conn=delta Kv=13.8 Kva=45.0 %R=0.760
~ wdg=2 bus=node_407562730.1.2.3.4 conn=wye Kv=0.2200 Kva=45.0 %R=0.760
New Transformer.325049976_325774810 phases=3 windings=2 Xhl=3.700
~ wdg=1 bus=node_433653107.1.2.3 conn=delta Kv=13.8 Kva=45.0 %R=0.760
~ wdg=2 bus=node_407562973.1.2.3.4 conn=wye Kv=0.2200 Kva=45.0 %R=0.760
New Transformer.325173160_325860875 phases=3 windings=2 Xhl=3.700
~ wdg=1 bus=node_444936181.1.2.3 conn=delta Kv=13.8 Kva=45.0 %R=0.760
~ wdg=2 bus=node_412470340.1.2.3.4 conn=wye Kv=0.2200 Kva=45.0 %R=0.760
New Transformer.325173475_325859354 phases=3 windings=2 Xhl=3.700
~ wdg=1 bus=node_431511432.1.2.3 conn=delta Kv=13.8 Kva=45.0 %R=0.760
~ wdg=2 bus=node_407563606.1.2.3.4 conn=wye Kv=0.2200 Kva=45.0 %R=0.760
New Transformer.325173843_2765370352 phases=3 windings=2 Xhl=3.700
~ wdg=1 bus=node_434714833.1.2.3 conn=delta Kv=13.8 Kva=45.0 %R=0.760
~ wdg=2 bus=node_408091383.1.2.3.4 conn=wye Kv=0.2200 Kva=45.0 %R=0.760
New Transformer.325050046_325841068 phases=3 windings=2 Xhl=3.700
~ wdg=1 bus=node_444937546.1.2.3 conn=delta Kv=13.8 Kva=45.0 %R=0.760
~ wdg=2 bus=node_407562385.1.2.3.4 conn=wye Kv=0.2200 Kva=45.0 %R=0.760
New Transformer.325173402_325811607 phases=3 windings=2 Xhl=3.700
~ wdg=1 bus=node_442204907.1.2.3 conn=delta Kv=13.8 Kva=45.0 %R=0.760
~ wdg=2 bus=node_409085986.1.2.3.4 conn=wye Kv=0.2200 Kva=45.0 %R=0.760
New Transformer.325050384_325776017 phases=3 windings=2 Xhl=3.700
~ wdg=1 bus=node_445409465.1.2.3 conn=delta Kv=13.8 Kva=45.0 %R=0.760
~ wdg=2 bus=node_407562196.1.2.3.4 conn=wye Kv=0.2200 Kva=45.0 %R=0.760
New Transformer.325173377_325774651 phases=3 windings=2 Xhl=3.700
~ wdg=1 bus=node_431886250.1.2.3 conn=delta Kv=13.8 Kva=45.0 %R=0.760
~ wdg=2 bus=node_412470643.1.2.3.4 conn=wye Kv=0.2200 Kva=45.0 %R=0.760
New Transformer.325050140_325861016 phases=3 windings=2 Xhl=3.700
~ wdg=1 bus=node_424374431.1.2.3 conn=delta Kv=13.8 Kva=45.0 %R=0.760
~ wdg=2 bus=node_407697713.1.2.3.4 conn=wye Kv=0.2200 Kva=45.0 %R=0.760
New Transformer.325050199_325774537 phases=3 windings=2 Xhl=3.700
~ wdg=1 bus=node_431689636.1.2.3 conn=delta Kv=13.8 Kva=45.0 %R=0.760
~ wdg=2 bus=node_407612508.1.2.3.4 conn=wye Kv=0.2200 Kva=45.0 %R=0.760
New Transformer.325173823_325859193 phases=3 windings=2 Xhl=3.700
~ wdg=1 bus=node_424294600.1.2.3 conn=delta Kv=13.8 Kva=45.0 %R=0.760
~ wdg=2 bus=node_412470562.1.2.3.4 conn=wye Kv=0.2200 Kva=45.0 %R=0.760
New Transformer.325173791_325811588 phases=3 windings=2 Xhl=3.700
~ wdg=1 bus=node_424373174.1.2.3 conn=delta Kv=13.8 Kva=45.0 %R=0.760
~ wdg=2 bus=node_409086004.1.2.3.4 conn=wye Kv=0.2200 Kva=45.0 %R=0.760
New Transformer.325050903_325402168 phases=3 windings=2 Xhl=3.700
~ wdg=1 bus=node_444937995.1.2.3 conn=delta Kv=13.8 Kva=45.0 %R=0.760
~ wdg=2 bus=node_408201873.1.2.3.4 conn=wye Kv=0.2200 Kva=45.0 %R=0.760
New Transformer.325050876_325838304 phases=3 windings=2 Xhl=3.700
~ wdg=1 bus=node_434714663.1.2.3 conn=delta Kv=13.8 Kva=45.0 %R=0.760
~ wdg=2 bus=node_407795855.1.2.3.4 conn=wye Kv=0.2200 Kva=45.0 %R=0.760
New Transformer.325173884_325813955 phases=3 windings=2 Xhl=3.700
~ wdg=1 bus=node_424373220.1.2.3 conn=delta Kv=13.8 Kva=45.0 %R=0.760
~ wdg=2 bus=node_407562073.1.2.3.4 conn=wye Kv=0.2200 Kva=45.0 %R=0.760
New Transformer.325174238_325776046 phases=3 windings=2 Xhl=3.700
~ wdg=1 bus=node_445398206.1.2.3 conn=delta Kv=13.8 Kva=45.0 %R=0.760
~ wdg=2 bus=node_407562691.1.2.3.4 conn=wye Kv=0.2200 Kva=45.0 %R=0.760
New Transformer.325174304_325774813 phases=3 windings=2 Xhl=3.700
~ wdg=1 bus=node_431511937.1.2.3 conn=delta Kv=13.8 Kva=45.0 %R=0.760
~ wdg=2 bus=node_407563837.1.2.3.4 conn=wye Kv=0.2200 Kva=45.0 %R=0.760
New Transformer.325174179_325743901 phases=3 windings=2 Xhl=3.700
~ wdg=1 bus=node_444358061.1.2.3 conn=delta Kv=13.8 Kva=45.0 %R=0.760
~ wdg=2 bus=node_407562391.1.2.3.4 conn=wye Kv=0.2200 Kva=45.0 %R=0.760
New Transformer.325174159_325743744 phases=3 windings=2 Xhl=3.700
~ wdg=1 bus=node_445409364.1.2.3 conn=delta Kv=13.8 Kva=45.0 %R=0.760
~ wdg=2 bus=node_407562193.1.2.3.4 conn=wye Kv=0.2200 Kva=45.0 %R=0.760
New Transformer.325174144_325811785 phases=3 windings=2 Xhl=3.700
~ wdg=1 bus=node_1740092169.1.2.3 conn=delta Kv=13.8 Kva=45.0 %R=0.760
~ wdg=2 bus=node_461073191.1.2.3.4 conn=wye Kv=0.2200 Kva=45.0 %R=0.760
New Transformer.325174465_2573394200 phases=3 windings=2 Xhl=3.700
~ wdg=1 bus=node_444148093.1.2.3 conn=delta Kv=13.8 Kva=45.0 %R=0.760
~ wdg=2 bus=node_407562910.1.2.3.4 conn=wye Kv=0.2200 Kva=45.0 %R=0.760
New Transformer.325174600_325774819 phases=3 windings=2 Xhl=3.700
~ wdg=1 bus=node_445409430.1.2.3 conn=delta Kv=13.8 Kva=45.0 %R=0.760
~ wdg=2 bus=node_407561923.1.2.3.4 conn=wye Kv=0.2200 Kva=45.0 %R=0.760
New Transformer.325174792_325859555 phases=3 windings=2 Xhl=3.700
~ wdg=1 bus=node_444861931.1.2.3 conn=delta Kv=13.8 Kva=45.0 %R=0.760
~ wdg=2 bus=node_407737367.1.2.3.4 conn=wye Kv=0.2200 Kva=45.0 %R=0.760
New Transformer.325174967_1220595264 phases=3 windings=2 Xhl=3.700
~ wdg=1 bus=node_445410374.1.2.3 conn=delta Kv=13.8 Kva=45.0 %R=0.760
~ wdg=2 bus=node_407562652.1.2.3.4 conn=wye Kv=0.2200 Kva=45.0 %R=0.760
New Transformer.325175058_325841067 phases=3 windings=2 Xhl=3.700
~ wdg=1 bus=node_444861231.1.2.3 conn=delta Kv=13.8 Kva=45.0 %R=0.760
~ wdg=2 bus=node_407563165.1.2.3.4 conn=wye Kv=0.2200 Kva=45.0 %R=0.760
New Transformer.325175179_325841012 phases=3 windings=2 Xhl=3.700
~ wdg=1 bus=node_431512142.1.2.3 conn=delta Kv=13.8 Kva=45.0 %R=0.760
~ wdg=2 bus=node_407563543.1.2.3.4 conn=wye Kv=0.2200 Kva=45.0 %R=0.760
New Transformer.993730804_993730803 phases=3 windings=2 Xhl=3.700
~ wdg=1 bus=node_1274253851.1.2.3 conn=delta Kv=13.8 Kva=45.0 %R=0.760
~ wdg=2 bus=node_1274253710.1.2.3.4 conn=wye Kv=0.2200 Kva=45.0 %R=0.760
New Transformer.325175386_325775693 phases=3 windings=2 Xhl=3.700
~ wdg=1 bus=node_444862111.1.2.3 conn=delta Kv=13.8 Kva=45.0 %R=0.760
~ wdg=2 bus=node_407564836.1.2.3.4 conn=wye Kv=0.2200 Kva=45.0 %R=0.760
New Transformer.325175582_597703330 phases=3 windings=2 Xhl=3.700
~ wdg=1 bus=node_445408686.1.2.3 conn=delta Kv=13.8 Kva=45.0 %R=0.760
~ wdg=2 bus=node_407563618.1.2.3.4 conn=wye Kv=0.2200 Kva=45.0 %R=0.760
New Transformer.325175611_325841025 phases=3 windings=2 Xhl=3.700
~ wdg=1 bus=node_444147868.1.2.3 conn=delta Kv=13.8 Kva=45.0 %R=0.760
~ wdg=2 bus=node_407562094.1.2.3.4 conn=wye Kv=0.2200 Kva=45.0 %R=0.760
New Transformer.325175860_325774671 phases=3 windings=2 Xhl=3.700
~ wdg=1 bus=node_444488714.1.2.3 conn=delta Kv=13.8 Kva=45.0 %R=0.760
~ wdg=2 bus=node_407564932.1.2.3.4 conn=wye Kv=0.2200 Kva=45.0 %R=0.760
New Transformer.325175763_890747360 phases=3 windings=2 Xhl=3.700
~ wdg=1 bus=node_431688836.1.2.3 conn=delta Kv=13.8 Kva=45.0 %R=0.760
~ wdg=2 bus=node_407563546.1.2.3.4 conn=wye Kv=0.2200 Kva=45.0 %R=0.760
New Transformer.325175960_325859359 phases=3 windings=2 Xhl=3.700
~ wdg=1 bus=node_442205326.1.2.3 conn=delta Kv=13.8 Kva=45.0 %R=0.760
~ wdg=2 bus=node_407563393.1.2.3.4 conn=wye Kv=0.2200 Kva=45.0 %R=0.760
New Transformer.325175999_325743719 phases=3 windings=2 Xhl=3.700
~ wdg=1 bus=node_445398152.1.2.3 conn=delta Kv=13.8 Kva=45.0 %R=0.760
~ wdg=2 bus=node_407563834.1.2.3.4 conn=wye Kv=0.2200 Kva=45.0 %R=0.760
New Transformer.1006466419_1006466418 phases=3 windings=2 Xhl=3.700
~ wdg=1 bus=node_1269461041.1.2.3 conn=delta Kv=13.8 Kva=45.0 %R=0.760
~ wdg=2 bus=node_1269461052.1.2.3.4 conn=wye Kv=0.2200 Kva=45.0 %R=0.760
New Transformer.2179389725_2179389724 phases=3 windings=2 Xhl=3.700
~ wdg=1 bus=node_2486397851.1.2.3 conn=delta Kv=13.8 Kva=45.0 %R=0.760
~ wdg=2 bus=node_461279280.1.2.3.4 conn=wye Kv=0.2200 Kva=45.0 %R=0.760
New Transformer.2182572054_2182572053 phases=3 windings=2 Xhl=3.700
~ wdg=1 bus=node_2489185549.1.2.3 conn=delta Kv=13.8 Kva=45.0 %R=0.760
~ wdg=2 bus=node_2489185524.1.2.3.4 conn=wye Kv=0.2200 Kva=45.0 %R=0.760
New Transformer.1014444764_1014444763 phases=3 windings=2 Xhl=3.700
~ wdg=1 bus=node_431511882.1.2.3 conn=delta Kv=13.8 Kva=45.0 %R=0.760
~ wdg=2 bus=node_460226497.1.2.3.4 conn=wye Kv=0.2200 Kva=45.0 %R=0.760
New Transformer.2187247743_2187247764 phases=3 windings=2 Xhl=3.700
~ wdg=1 bus=node_444937925.1.2.3 conn=delta Kv=13.8 Kva=45.0 %R=0.760
~ wdg=2 bus=node_453433125.1.2.3.4 conn=wye Kv=0.2200 Kva=45.0 %R=0.760
New Transformer.1048368366_1048368367 phases=3 windings=2 Xhl=3.700
~ wdg=1 bus=node_1314974560.1.2.3 conn=delta Kv=13.8 Kva=45.0 %R=0.760
~ wdg=2 bus=node_1314973736.1.2.3.4 conn=wye Kv=0.2200 Kva=45.0 %R=0.760
New Transformer.1048368372_1048368373 phases=3 windings=2 Xhl=3.700
~ wdg=1 bus=node_1314974576.1.2.3 conn=delta Kv=13.8 Kva=45.0 %R=0.760
~ wdg=2 bus=node_1314973589.1.2.3.4 conn=wye Kv=0.2200 Kva=45.0 %R=0.760
New Transformer.1048368468_1048368478 phases=3 windings=2 Xhl=3.700
~ wdg=1 bus=node_1314974724.1.2.3 conn=delta Kv=13.8 Kva=45.0 %R=0.760
~ wdg=2 bus=node_1314974169.1.2.3.4 conn=wye Kv=0.2200 Kva=45.0 %R=0.760
New Transformer.1055864793_1055864794 phases=3 windings=2 Xhl=3.700
~ wdg=1 bus=node_444938576.1.2.3 conn=delta Kv=13.8 Kva=45.0 %R=0.760
~ wdg=2 bus=node_407562574.1.2.3.4 conn=wye Kv=0.2200 Kva=45.0 %R=0.760
New Transformer.324922974_325774818 phases=3 windings=2 Xhl=3.700
~ wdg=1 bus=node_445409415.1.2.3 conn=delta Kv=13.8 Kva=45.0 %R=0.760
~ wdg=2 bus=node_484335132.1.2.3.4 conn=wye Kv=0.2200 Kva=45.0 %R=0.760
New Transformer.324923295_325838300 phases=3 windings=2 Xhl=3.700
~ wdg=1 bus=node_445410654.1.2.3 conn=delta Kv=13.8 Kva=45.0 %R=0.760
~ wdg=2 bus=node_407562427.1.2.3.4 conn=wye Kv=0.2200 Kva=45.0 %R=0.760
New Transformer.324923404_325743454 phases=3 windings=2 Xhl=3.700
~ wdg=1 bus=node_424297129.1.2.3 conn=delta Kv=13.8 Kva=45.0 %R=0.760
~ wdg=2 bus=node_407612634.1.2.3.4 conn=wye Kv=0.2200 Kva=45.0 %R=0.760
New Transformer.324923136_325743742 phases=3 windings=2 Xhl=3.700
~ wdg=1 bus=node_444937846.1.2.3 conn=delta Kv=13.8 Kva=45.0 %R=0.760
~ wdg=2 bus=node_407562418.1.2.3.4 conn=wye Kv=0.2200 Kva=45.0 %R=0.760
New Transformer.324923363_325775979 phases=3 windings=2 Xhl=3.700
~ wdg=1 bus=node_431510207.1.2.3 conn=delta Kv=13.8 Kva=45.0 %R=0.760
~ wdg=2 bus=node_407563540.1.2.3.4 conn=wye Kv=0.2200 Kva=45.0 %R=0.760
New Transformer.324923055_325746397 phases=3 windings=2 Xhl=3.700
~ wdg=1 bus=node_427427988.1.2.3 conn=delta Kv=13.8 Kva=45.0 %R=0.760
~ wdg=2 bus=node_407563162.1.2.3.4 conn=wye Kv=0.2200 Kva=45.0 %R=0.760
New Transformer.324922713_325811584 phases=3 windings=2 Xhl=3.700
~ wdg=1 bus=node_424294636.1.2.3 conn=delta Kv=13.8 Kva=45.0 %R=0.760
~ wdg=2 bus=node_407562748.1.2.3.4 conn=wye Kv=0.2200 Kva=45.0 %R=0.760
New Transformer.324922727_325859362 phases=3 windings=2 Xhl=3.700
~ wdg=1 bus=node_444861267.1.2.3 conn=delta Kv=13.8 Kva=45.0 %R=0.760
~ wdg=2 bus=node_407563312.1.2.3.4 conn=wye Kv=0.2200 Kva=45.0 %R=0.760
New Transformer.324922798_325743346 phases=3 windings=2 Xhl=3.700
~ wdg=1 bus=node_444488429.1.2.3 conn=delta Kv=13.8 Kva=45.0 %R=0.760
~ wdg=2 bus=node_407612880.1.2.3.4 conn=wye Kv=0.2200 Kva=45.0 %R=0.760
New Transformer.324922915_325744988 phases=3 windings=2 Xhl=3.700
~ wdg=1 bus=node_445409494.1.2.3 conn=delta Kv=13.8 Kva=45.0 %R=0.760
~ wdg=2 bus=node_409085968.1.2.3.4 conn=wye Kv=0.2200 Kva=45.0 %R=0.760
New Transformer.2360493550_2360493549 phases=3 windings=2 Xhl=3.700
~ wdg=1 bus=node_2473065667.1.2.3 conn=delta Kv=13.8 Kva=45.0 %R=0.760
~ wdg=2 bus=node_462799731.1.2.3.4 conn=wye Kv=0.2200 Kva=45.0 %R=0.760
New Transformer.2403549485_2403549484 phases=3 windings=2 Xhl=3.700
~ wdg=1 bus=node_2504871080.1.2.3 conn=delta Kv=13.8 Kva=45.0 %R=0.760
~ wdg=2 bus=node_2504871066.1.2.3.4 conn=wye Kv=0.2200 Kva=45.0 %R=0.760
New Transformer.324925241_325859401 phases=3 windings=2 Xhl=3.700
~ wdg=1 bus=node_433652842.1.2.3 conn=delta Kv=13.8 Kva=45.0 %R=0.760
~ wdg=2 bus=node_407562505.1.2.3.4 conn=wye Kv=0.2200 Kva=45.0 %R=0.760
New Transformer.324923508_325773764 phases=3 windings=2 Xhl=3.700
~ wdg=1 bus=node_444937971.1.2.3 conn=delta Kv=13.8 Kva=45.0 %R=0.760
~ wdg=2 bus=node_409223692.1.2.3.4 conn=wye Kv=0.2200 Kva=45.0 %R=0.760
New Transformer.324924031_325813935 phases=3 windings=2 Xhl=3.700
~ wdg=1 bus=node_444937025.1.2.3 conn=delta Kv=13.8 Kva=45.0 %R=0.760
~ wdg=2 bus=node_407562331.1.2.3.4 conn=wye Kv=0.2200 Kva=45.0 %R=0.760
New Transformer.324924122_325743801 phases=3 windings=2 Xhl=3.700
~ wdg=1 bus=node_424373947.1.2.3 conn=delta Kv=13.8 Kva=45.0 %R=0.760
~ wdg=2 bus=node_412470163.1.2.3.4 conn=wye Kv=0.2200 Kva=45.0 %R=0.760
New Transformer.1084823734_1084823744 phases=3 windings=2 Xhl=3.700
~ wdg=1 bus=node_1360803895.1.2.3 conn=delta Kv=13.8 Kva=45.0 %R=0.760
~ wdg=2 bus=node_1360803811.1.2.3.4 conn=wye Kv=0.2200 Kva=45.0 %R=0.760
New Transformer.324924164_325811585 phases=3 windings=2 Xhl=3.700
~ wdg=1 bus=node_424296172.1.2.3 conn=delta Kv=13.8 Kva=45.0 %R=0.760
~ wdg=2 bus=node_407562295.1.2.3.4 conn=wye Kv=0.2200 Kva=45.0 %R=0.760
New Transformer.324923672_325746058 phases=3 windings=2 Xhl=3.700
~ wdg=1 bus=node_431510192.1.2.3 conn=delta Kv=13.8 Kva=45.0 %R=0.760
~ wdg=2 bus=node_407564821.1.2.3.4 conn=wye Kv=0.2200 Kva=45.0 %R=0.760
New Transformer.324923772_325746327 phases=3 windings=2 Xhl=3.700
~ wdg=1 bus=node_442204832.1.2.3 conn=delta Kv=13.8 Kva=45.0 %R=0.760
~ wdg=2 bus=node_407563117.1.2.3.4 conn=wye Kv=0.2200 Kva=45.0 %R=0.760
New Transformer.324924283_325859446 phases=3 windings=2 Xhl=3.700
~ wdg=1 bus=node_2150581273.1.2.3 conn=delta Kv=13.8 Kva=45.0 %R=0.760
~ wdg=2 bus=node_412469920.1.2.3.4 conn=wye Kv=0.2200 Kva=45.0 %R=0.760
New Transformer.324923825_325841011 phases=3 windings=2 Xhl=3.700
~ wdg=1 bus=node_431511837.1.2.3 conn=delta Kv=13.8 Kva=45.0 %R=0.760
~ wdg=2 bus=node_407563915.1.2.3.4 conn=wye Kv=0.2200 Kva=45.0 %R=0.760
New Transformer.324923834_325859391 phases=3 windings=2 Xhl=3.700
~ wdg=1 bus=node_444938011.1.2.3 conn=delta Kv=13.8 Kva=45.0 %R=0.760
~ wdg=2 bus=node_407561971.1.2.3.4 conn=wye Kv=0.2200 Kva=45.0 %R=0.760
New Transformer.324923887_325815709 phases=3 windings=2 Xhl=3.700
~ wdg=1 bus=node_433653097.1.2.3 conn=delta Kv=13.8 Kva=45.0 %R=0.760
~ wdg=2 bus=node_407794178.1.2.3.4 conn=wye Kv=0.2200 Kva=45.0 %R=0.760
New Transformer.1132624676_1132624675 phases=3 windings=2 Xhl=3.700
~ wdg=1 bus=node_424296385.1.2.3 conn=delta Kv=13.8 Kva=45.0 %R=0.760
~ wdg=2 bus=node_407562970.1.2.3.4 conn=wye Kv=0.2200 Kva=45.0 %R=0.760
New Transformer.663165581_663165580 phases=3 windings=2 Xhl=3.700
~ wdg=1 bus=node_934314818.1.2.3 conn=delta Kv=13.8 Kva=45.0 %R=0.760
~ wdg=2 bus=node_934314470.1.2.3.4 conn=wye Kv=0.2200 Kva=45.0 %R=0.760
New Transformer.324924432_325403082 phases=3 windings=2 Xhl=3.700
~ wdg=1 bus=node_442205357.1.2.3 conn=delta Kv=13.8 Kva=45.0 %R=0.760
~ wdg=2 bus=node_407562979.1.2.3.4 conn=wye Kv=0.2200 Kva=45.0 %R=0.760
New Transformer.324924403_325813919 phases=3 windings=2 Xhl=3.700
~ wdg=1 bus=node_445408196.1.2.3 conn=delta Kv=13.8 Kva=45.0 %R=0.760
~ wdg=2 bus=node_407563813.1.2.3.4 conn=wye Kv=0.2200 Kva=45.0 %R=0.760
New Transformer.1114726913_1114726912 phases=3 windings=2 Xhl=3.700
~ wdg=1 bus=node_1383969269.1.2.3 conn=delta Kv=13.8 Kva=45.0 %R=0.760
~ wdg=2 bus=node_407793545.1.2.3.4 conn=wye Kv=0.2200 Kva=45.0 %R=0.760
New Transformer.324924521_325403365 phases=3 windings=2 Xhl=3.700
~ wdg=1 bus=node_445398597.1.2.3 conn=delta Kv=13.8 Kva=45.0 %R=0.760
~ wdg=2 bus=node_409152432.1.2.3.4 conn=wye Kv=0.2200 Kva=45.0 %R=0.760
New Transformer.324924531_325813912 phases=3 windings=2 Xhl=3.700
~ wdg=1 bus=node_431511987.1.2.3 conn=delta Kv=13.8 Kva=45.0 %R=0.760
~ wdg=2 bus=node_407563678.1.2.3.4 conn=wye Kv=0.2200 Kva=45.0 %R=0.760
New Transformer.324924553_325743717 phases=3 windings=2 Xhl=3.700
~ wdg=1 bus=node_445408741.1.2.3 conn=delta Kv=13.8 Kva=45.0 %R=0.760
~ wdg=2 bus=node_407563780.1.2.3.4 conn=wye Kv=0.2200 Kva=45.0 %R=0.760
New Transformer.324924713_325841010 phases=3 windings=2 Xhl=3.700
~ wdg=1 bus=node_444938820.1.2.3 conn=delta Kv=13.8 Kva=45.0 %R=0.760
~ wdg=2 bus=node_407563924.1.2.3.4 conn=wye Kv=0.2200 Kva=45.0 %R=0.760
New Transformer.324924799_325746056 phases=3 windings=2 Xhl=3.700
~ wdg=1 bus=node_442205441.1.2.3 conn=delta Kv=13.8 Kva=45.0 %R=0.760
~ wdg=2 bus=node_407612514.1.2.3.4 conn=wye Kv=0.2200 Kva=45.0 %R=0.760
New Transformer.324926614_325813309 phases=3 windings=2 Xhl=3.700
~ wdg=1 bus=node_424295697.1.2.3 conn=delta Kv=13.8 Kva=45.0 %R=0.760
~ wdg=2 bus=node_407563750.1.2.3.4 conn=wye Kv=0.2200 Kva=45.0 %R=0.760
New Transformer.1157537925_1157537924 phases=3 windings=2 Xhl=3.700
~ wdg=1 bus=node_431509777.1.2.3 conn=delta Kv=13.8 Kva=45.0 %R=0.760
~ wdg=2 bus=node_412470304.1.2.3.4 conn=wye Kv=0.2200 Kva=45.0 %R=0.760
New Transformer.324926605_325841013 phases=3 windings=2 Xhl=3.700
~ wdg=1 bus=node_445408476.1.2.3 conn=delta Kv=13.8 Kva=45.0 %R=0.760
~ wdg=2 bus=node_407563714.1.2.3.4 conn=wye Kv=0.2200 Kva=45.0 %R=0.760
New Transformer.324925294_325815701 phases=3 windings=2 Xhl=3.700
~ wdg=1 bus=node_444488509.1.2.3 conn=delta Kv=13.8 Kva=45.0 %R=0.760
~ wdg=2 bus=node_407738402.1.2.3.4 conn=wye Kv=0.2200 Kva=45.0 %R=0.760
New Transformer.324925296_325812090 phases=3 windings=2 Xhl=3.700
~ wdg=1 bus=node_427635299.1.2.3 conn=delta Kv=13.8 Kva=45.0 %R=0.760
~ wdg=2 bus=node_408092649.1.2.3.4 conn=wye Kv=0.2200 Kva=45.0 %R=0.760
New Transformer.324925668_325743716 phases=3 windings=2 Xhl=3.700
~ wdg=1 bus=node_444937175.1.2.3 conn=delta Kv=13.8 Kva=45.0 %R=0.760
~ wdg=2 bus=node_407563627.1.2.3.4 conn=wye Kv=0.2200 Kva=45.0 %R=0.760
New Transformer.324925656_325746715 phases=3 windings=2 Xhl=3.700
~ wdg=1 bus=node_431690406.1.2.3 conn=delta Kv=13.8 Kva=45.0 %R=0.760
~ wdg=2 bus=node_412448001.1.2.3.4 conn=wye Kv=0.2200 Kva=45.0 %R=0.760
New Transformer.324925330_325841069 phases=3 windings=2 Xhl=3.700
~ wdg=1 bus=node_444488719.1.2.3 conn=delta Kv=13.8 Kva=45.0 %R=0.760
~ wdg=2 bus=node_407563153.1.2.3.4 conn=wye Kv=0.2200 Kva=45.0 %R=0.760
New Transformer.324925446_325838560 phases=3 windings=2 Xhl=3.700
~ wdg=1 bus=node_433652247.1.2.3 conn=delta Kv=13.8 Kva=45.0 %R=0.760
~ wdg=2 bus=node_412428203.1.2.3.4 conn=wye Kv=0.2200 Kva=45.0 %R=0.760
New Transformer.324925580_2170423826 phases=3 windings=2 Xhl=3.700
~ wdg=1 bus=node_444936361.1.2.3 conn=delta Kv=13.8 Kva=45.0 %R=0.760
~ wdg=2 bus=node_412448976.1.2.3.4 conn=wye Kv=0.2200 Kva=45.0 %R=0.760
New Transformer.324925774_2609760103 phases=3 windings=2 Xhl=3.700
~ wdg=1 bus=node_431266794.1.2.3 conn=delta Kv=13.8 Kva=45.0 %R=0.760
~ wdg=2 bus=node_407562586.1.2.3.4 conn=wye Kv=0.2200 Kva=45.0 %R=0.760
New Transformer.324926342_325746332 phases=3 windings=2 Xhl=3.700
~ wdg=1 bus=node_445408062.1.2.3 conn=delta Kv=13.8 Kva=45.0 %R=0.760
~ wdg=2 bus=node_407563672.1.2.3.4 conn=wye Kv=0.2200 Kva=45.0 %R=0.760
New Transformer.324926236_325744974 phases=3 windings=2 Xhl=3.700
~ wdg=1 bus=node_434714662.1.2.3 conn=delta Kv=13.8 Kva=45.0 %R=0.760
~ wdg=2 bus=node_495496523.1.2.3.4 conn=wye Kv=0.2200 Kva=45.0 %R=0.760
New Transformer.829412037_829412036 phases=3 windings=2 Xhl=3.700
~ wdg=1 bus=node_1098903535.1.2.3 conn=delta Kv=13.8 Kva=45.0 %R=0.760
~ wdg=2 bus=node_465671774.1.2.3.4 conn=wye Kv=0.2200 Kva=45.0 %R=0.760
New Transformer.324926278_325743802 phases=3 windings=2 Xhl=3.700
~ wdg=1 bus=node_424372891.1.2.3 conn=delta Kv=13.8 Kva=45.0 %R=0.760
~ wdg=2 bus=node_412469677.1.2.3.4 conn=wye Kv=0.2200 Kva=45.0 %R=0.760
New Transformer.324926282_2434401714 phases=3 windings=2 Xhl=3.700
~ wdg=1 bus=node_444937651.1.2.3 conn=delta Kv=13.8 Kva=45.0 %R=0.760
~ wdg=2 bus=node_407562457.1.2.3.4 conn=wye Kv=0.2200 Kva=45.0 %R=0.760
New Transformer.739478525_739478524 phases=3 windings=2 Xhl=3.700
~ wdg=1 bus=node_1013045173.1.2.3 conn=delta Kv=13.8 Kva=45.0 %R=0.760
~ wdg=2 bus=node_1013045021.1.2.3.4 conn=wye Kv=0.2200 Kva=45.0 %R=0.760
New Transformer.880416063_880416062 phases=3 windings=2 Xhl=3.700
~ wdg=1 bus=node_1146304919.1.2.3 conn=delta Kv=13.8 Kva=45.0 %R=0.760
~ wdg=2 bus=node_462159515.1.2.3.4 conn=wye Kv=0.2200 Kva=45.0 %R=0.760
New Transformer.1220251972_1220251988 phases=3 windings=2 Xhl=3.700
~ wdg=1 bus=node_1518659434.1.2.3 conn=delta Kv=13.8 Kva=45.0 %R=0.760
~ wdg=2 bus=node_1518659305.1.2.3.4 conn=wye Kv=0.2200 Kva=45.0 %R=0.760
New Transformer.900013831_900013830 phases=3 windings=2 Xhl=3.700
~ wdg=1 bus=node_1144926549.1.2.3 conn=delta Kv=13.8 Kva=45.0 %R=0.760
~ wdg=2 bus=node_1144926511.1.2.3.4 conn=wye Kv=0.2200 Kva=45.0 %R=0.760
New Transformer.771876661_771876660 phases=3 windings=2 Xhl=3.700
~ wdg=1 bus=node_1044730341.1.2.3 conn=delta Kv=13.8 Kva=45.0 %R=0.760
~ wdg=2 bus=node_464627685.1.2.3.4 conn=wye Kv=0.2200 Kva=45.0 %R=0.760
New Transformer.762854886_762854885 phases=3 windings=2 Xhl=3.700
~ wdg=1 bus=node_1380254813.1.2.3 conn=delta Kv=13.8 Kva=45.0 %R=0.760
~ wdg=2 bus=node_463413351.1.2.3.4 conn=wye Kv=0.2200 Kva=45.0 %R=0.760
New Transformer.1245234444_1245234460 phases=3 windings=2 Xhl=3.700
~ wdg=1 bus=node_1543259660.1.2.3 conn=delta Kv=13.8 Kva=45.0 %R=0.760
~ wdg=2 bus=node_1543259459.1.2.3.4 conn=wye Kv=0.2200 Kva=45.0 %R=0.760
New Transformer.324380822_1220578089 phases=3 windings=2 Xhl=3.700
~ wdg=1 bus=node_431265670.1.2.3 conn=delta Kv=13.8 Kva=45.0 %R=0.760
~ wdg=2 bus=node_408090552.1.2.3.4 conn=wye Kv=0.2200 Kva=45.0 %R=0.760
New Transformer.324381107_325813923 phases=3 windings=2 Xhl=3.700
~ wdg=1 bus=node_445408461.1.2.3 conn=delta Kv=13.8 Kva=45.0 %R=0.760
~ wdg=2 bus=node_407562358.1.2.3.4 conn=wye Kv=0.2200 Kva=45.0 %R=0.760
New Transformer.324381192_325859357 phases=3 windings=2 Xhl=3.700
~ wdg=1 bus=node_444861247.1.2.3 conn=delta Kv=13.8 Kva=45.0 %R=0.760
~ wdg=2 bus=node_407562937.1.2.3.4 conn=wye Kv=0.2200 Kva=45.0 %R=0.760
New Transformer.1616875895_1616875916 phases=3 windings=2 Xhl=3.700
~ wdg=1 bus=node_1937474723.1.2.3 conn=delta Kv=13.8 Kva=45.0 %R=0.760
~ wdg=2 bus=node_1937474612.1.2.3.4 conn=wye Kv=0.2200 Kva=45.0 %R=0.760
New Transformer.324381426_882039128 phases=3 windings=2 Xhl=3.700
~ wdg=1 bus=node_1271191520.1.2.3 conn=delta Kv=13.8 Kva=45.0 %R=0.760
~ wdg=2 bus=node_1271191510.1.2.3.4 conn=wye Kv=0.2200 Kva=45.0 %R=0.760
New Transformer.1887092852_1887092873 phases=3 windings=2 Xhl=3.700
~ wdg=1 bus=node_2208816534.1.2.3 conn=delta Kv=13.8 Kva=45.0 %R=0.760
~ wdg=2 bus=node_2027812060.1.2.3.4 conn=wye Kv=0.2200 Kva=45.0 %R=0.760
New Transformer.1887092963_1887092968 phases=3 windings=2 Xhl=3.700
~ wdg=1 bus=node_2208816682.1.2.3 conn=delta Kv=13.8 Kva=45.0 %R=0.760
~ wdg=2 bus=node_2027812220.1.2.3.4 conn=wye Kv=0.2200 Kva=45.0 %R=0.760
New Transformer.1892619303_1892619322 phases=3 windings=2 Xhl=3.700
~ wdg=1 bus=node_2370138513.1.2.3 conn=delta Kv=13.8 Kva=45.0 %R=0.760
~ wdg=2 bus=node_1313225480.1.2.3.4 conn=wye Kv=0.2200 Kva=45.0 %R=0.760
New Transformer.1314449385_1314449391 phases=3 windings=2 Xhl=3.700
~ wdg=1 bus=node_1612998463.1.2.3 conn=delta Kv=13.8 Kva=45.0 %R=0.760
~ wdg=2 bus=node_407563711.1.2.3.4 conn=wye Kv=0.2200 Kva=45.0 %R=0.760
New Transformer.1427592013_1427592029 phases=3 windings=2 Xhl=3.700
~ wdg=1 bus=node_1724114317.1.2.3 conn=delta Kv=13.8 Kva=45.0 %R=0.760
~ wdg=2 bus=node_1724114070.1.2.3.4 conn=wye Kv=0.2200 Kva=45.0 %R=0.760
New Transformer.1643159432_1643159447 phases=3 windings=2 Xhl=3.700
~ wdg=1 bus=node_1963084171.1.2.3 conn=delta Kv=13.8 Kva=45.0 %R=0.760
~ wdg=2 bus=node_460531254.1.2.3.4 conn=wye Kv=0.2200 Kva=45.0 %R=0.760
New Transformer.1897711935_1897711939 phases=3 windings=2 Xhl=3.700
~ wdg=1 bus=node_2217357393.1.2.3 conn=delta Kv=13.8 Kva=45.0 %R=0.760
~ wdg=2 bus=node_1013044929.1.2.3.4 conn=wye Kv=0.2200 Kva=45.0 %R=0.760
New Transformer.492040993_492040992 phases=3 windings=2 Xhl=3.700
~ wdg=1 bus=node_762275321.1.2.3 conn=delta Kv=13.8 Kva=45.0 %R=0.760
~ wdg=2 bus=node_762275356.1.2.3.4 conn=wye Kv=0.2200 Kva=45.0 %R=0.760
New Transformer.964535606_964535605 phases=3 windings=2 Xhl=3.700
~ wdg=1 bus=node_1226602857.1.2.3 conn=delta Kv=13.8 Kva=45.0 %R=0.760
~ wdg=2 bus=node_464318489.1.2.3.4 conn=wye Kv=0.2200 Kva=45.0 %R=0.760
New Transformer.960727262_960727261 phases=3 windings=2 Xhl=3.700
~ wdg=1 bus=node_424374756.1.2.3 conn=delta Kv=13.8 Kva=45.0 %R=0.760
~ wdg=2 bus=node_459249293.1.2.3.4 conn=wye Kv=0.2200 Kva=45.0 %R=0.760
New Transformer.1443767433_1443767432 phases=3 windings=2 Xhl=3.700
~ wdg=1 bus=node_2918671309.1.2.3 conn=delta Kv=13.8 Kva=45.0 %R=0.760
~ wdg=2 bus=node_2918671320.1.2.3.4 conn=wye Kv=0.2200 Kva=45.0 %R=0.760
New Transformer.1364436135_1364436155 phases=3 windings=2 Xhl=3.700
~ wdg=1 bus=node_1659146517.1.2.3 conn=delta Kv=13.8 Kva=45.0 %R=0.760
~ wdg=2 bus=node_1659146382.1.2.3.4 conn=wye Kv=0.2200 Kva=45.0 %R=0.760
New Transformer.1363744435_1363744434 phases=3 windings=2 Xhl=3.700
~ wdg=1 bus=node_1658458905.1.2.3 conn=delta Kv=13.8 Kva=45.0 %R=0.760
~ wdg=2 bus=node_407793329.1.2.3.4 conn=wye Kv=0.2200 Kva=45.0 %R=0.760
New Transformer.1364436099_1364436109 phases=3 windings=2 Xhl=3.700
~ wdg=1 bus=node_1659146181.1.2.3 conn=delta Kv=13.8 Kva=45.0 %R=0.760
~ wdg=2 bus=node_412469809.1.2.3.4 conn=wye Kv=0.2200 Kva=45.0 %R=0.760
New Transformer.513729981_513729980 phases=3 windings=2 Xhl=3.700
~ wdg=1 bus=node_783848419.1.2.3 conn=delta Kv=13.8 Kva=45.0 %R=0.760
~ wdg=2 bus=node_412469878.1.2.3.4 conn=wye Kv=0.2200 Kva=45.0 %R=0.760
New Transformer.1702051540_1702051545 phases=3 windings=2 Xhl=3.700
~ wdg=1 bus=node_2027811673.1.2.3 conn=delta Kv=13.8 Kva=45.0 %R=0.760
~ wdg=2 bus=node_2027811541.1.2.3.4 conn=wye Kv=0.2200 Kva=45.0 %R=0.760
New Transformer.1465233152_1465233173 phases=3 windings=2 Xhl=3.700
~ wdg=1 bus=node_424374886.1.2.3 conn=delta Kv=13.8 Kva=45.0 %R=0.760
~ wdg=2 bus=node_459094798.1.2.3.4 conn=wye Kv=0.2200 Kva=45.0 %R=0.760
New Transformer.1375355626_1375355642 phases=3 windings=2 Xhl=3.700
~ wdg=1 bus=node_2454167300.1.2.3 conn=delta Kv=13.8 Kva=45.0 %R=0.760
~ wdg=2 bus=node_1768974669.1.2.3.4 conn=wye Kv=0.2200 Kva=45.0 %R=0.760
New Transformer.1377317873_1377317889 phases=3 windings=2 Xhl=3.700
~ wdg=1 bus=node_1672070996.1.2.3 conn=delta Kv=13.8 Kva=45.0 %R=0.760
~ wdg=2 bus=node_1672070833.1.2.3.4 conn=wye Kv=0.2200 Kva=45.0 %R=0.760
New Transformer.324759545_2649312437 phases=3 windings=2 Xhl=3.700
~ wdg=1 bus=node_444937046.1.2.3 conn=delta Kv=13.8 Kva=45.0 %R=0.760
~ wdg=2 bus=node_407562373.1.2.3.4 conn=wye Kv=0.2200 Kva=45.0 %R=0.760
New Transformer.1706147968_1706147973 phases=3 windings=2 Xhl=3.700
~ wdg=1 bus=node_2031907994.1.2.3 conn=delta Kv=13.8 Kva=45.0 %R=0.760
~ wdg=2 bus=node_465306784.1.2.3.4 conn=wye Kv=0.2200 Kva=45.0 %R=0.760
New Transformer.517598885_517598884 phases=3 windings=2 Xhl=3.700
~ wdg=1 bus=node_444358045.1.2.3 conn=delta Kv=13.8 Kva=45.0 %R=0.760
~ wdg=2 bus=node_408259917.1.2.3.4 conn=wye Kv=0.2200 Kva=45.0 %R=0.760
New Transformer.324759681_325743714 phases=3 windings=2 Xhl=3.700
~ wdg=1 bus=node_431689691.1.2.3 conn=delta Kv=13.8 Kva=45.0 %R=0.760
~ wdg=2 bus=node_407563786.1.2.3.4 conn=wye Kv=0.2200 Kva=45.0 %R=0.760
New Transformer.324759654_325774809 phases=3 windings=2 Xhl=3.700
~ wdg=1 bus=node_445410389.1.2.3 conn=delta Kv=13.8 Kva=45.0 %R=0.760
~ wdg=2 bus=node_407563402.1.2.3.4 conn=wye Kv=0.2200 Kva=45.0 %R=0.760
New Transformer.324759714_325403448 phases=3 windings=2 Xhl=3.700
~ wdg=1 bus=node_444939425.1.2.3 conn=delta Kv=13.8 Kva=45.0 %R=0.760
...